OPT_V10/Two_days_first_run/powerflow_results_t28.txt
Pandapower Network Debug Info
==================================================

BUS:
       vm_pu  va_degree      p_mw    q_mvar
0   0.993111   0.114323  0.001068  0.001073
1   0.988876   0.165516  0.001407  0.001925
2   0.985062   0.200372  0.002265  0.002421
3   0.989441   0.211703  0.002167  0.004191
4   0.990327   0.203159  0.002655  0.004403
5   0.990901   0.178110  0.003917  0.007007
6   0.989191   0.177673  0.001212  0.000937
7   0.997289   0.013477  0.002127  0.001976
8   0.997811   0.038593  0.002555  0.003451
9   0.999827   0.000389  0.009968  0.008642
10  0.999833   0.000372  0.012986  0.009970
11  0.999851   0.000352  0.012134  0.009145
12  0.999769   0.001109  0.008619  0.005101
13  0.999739   0.001177  0.012336  0.010984
14  0.999749   0.001139  0.015177  0.010403
15  0.999929   0.000320  0.000000  0.000000
16  0.999929   0.000326  0.000000  0.000000
17  0.999774   0.001141  0.000000  0.000000
18  0.999773   0.001152  0.000000  0.000000
19  1.000000   0.000000 -0.042135 -0.042460
20  1.000000   0.000006  0.000000  0.000000
21  1.000000   0.000000 -0.048758 -0.049369
22  1.000000   0.000007  0.000000  0.000000
--------------------------------------------------

LINE:
    p_from_mw  q_from_mvar   p_to_mw  q_to_mvar         pl_mw       ql_mvar  i_from_ka   i_to_ka      i_ka  vm_from_pu  va_from_degree  vm_to_pu  va_to_degree  loading_percent
0    0.042125     0.038460 -0.042122  -0.038457  3.182503e-06  2.481450e-06   0.002196  0.002196  0.002196    1.000000        0.000006  0.999929      0.000320         0.954565
1    0.048748     0.045369 -0.048736  -0.045360  1.192870e-05  9.301004e-06   0.002563  0.002563  0.002563    1.000000        0.000007  0.999774      0.001141         1.114427
2    0.035092     0.027760 -0.035089  -0.027758  2.769775e-06  2.159639e-06   0.001722  0.001722  0.001722    0.999929        0.000320  0.999851      0.000352         0.748835
3    0.008620     0.005101 -0.008619  -0.005101  3.470771e-08  2.706217e-08   0.000386  0.000386  0.000386    0.999774        0.001141  0.999769      0.001109         0.167651
4    0.027514     0.021387 -0.027513  -0.021387  6.643416e-07  5.179981e-07   0.001342  0.001342  0.001342    0.999774        0.001141  0.999749      0.001139         0.583317
5    0.007020     0.009698 -0.006953  -0.009645  6.704583e-05  5.227674e-05   0.017281  0.017281  0.017281    0.999929        0.000326  0.993111      0.114323         7.513533
6    0.005202     0.008000 -0.005132  -0.007945  7.068477e-05  5.511408e-05   0.013777  0.013777  0.013777    0.999773        0.001152  0.990901      0.178110         5.990109
7    0.002132     0.001980 -0.002127  -0.001976  5.723228e-06  4.462495e-06   0.004201  0.004201  0.004201    0.999773        0.001152  0.997289      0.013477         1.826522
8    0.005258     0.007891 -0.005242  -0.007879  1.546700e-05  1.205988e-05   0.013690  0.013690  0.013690    0.999773        0.001152  0.997811      0.038593         5.952087
9    0.009968     0.008642 -0.009968  -0.008642  6.020776e-08  4.694498e-08   0.000508  0.000508  0.000508    0.999833        0.000372  0.999827      0.000389         0.220811
10   0.022955     0.018612 -0.022954  -0.018612  4.272499e-07  3.331337e-07   0.001138  0.001138  0.001138    0.999851        0.000352  0.999833      0.000372         0.494626
11   0.012336     0.010984 -0.012336  -0.010984  1.334986e-07  1.040910e-07   0.000636  0.000636  0.000636    0.999749        0.001139  0.999739      0.001177         0.276487
12  -0.003682    -0.004354  0.003702   0.004369  1.967273e-05  1.533915e-05   0.008323  0.008323  0.008323    0.988876        0.165516  0.993111      0.114323         3.618767
13  -0.002167    -0.004191  0.002183   0.004203  1.518444e-05  1.183956e-05   0.006883  0.006883  0.006883    0.989441        0.211703  0.993111      0.114323         2.992714
14  -0.002265    -0.002421  0.002276   0.002429  1.024940e-05  7.991629e-06   0.004858  0.004858  0.004858    0.985062        0.200372  0.988876      0.165516         2.112390
15   0.002688     0.004428 -0.002655  -0.004403  3.279585e-05  2.557147e-05   0.007494  0.007494  0.007494    0.997811        0.038593  0.990327      0.203159         3.258064
16  -0.001212    -0.000937  0.001214   0.000938  2.088022e-06  1.628065e-06   0.002235  0.002235  0.002235    0.989191        0.177673  0.990901      0.178110         0.971861
--------------------------------------------------

TRAFO:
    p_hv_mw  q_hv_mvar   p_lv_mw  q_lv_mvar    pl_mw   ql_mvar   i_hv_ka   i_lv_ka  vm_hv_pu  va_hv_degree  vm_lv_pu  va_lv_degree  loading_percent
0  0.007030   0.010698 -0.007020  -0.009698  0.00001  0.001000  0.000493  0.017281  0.999929      0.000320  0.999929      0.000326         0.128016
1  0.012603   0.018871 -0.012593  -0.017871  0.00001  0.000999  0.000874  0.031563  0.999774      0.001141  0.999773      0.001152         0.226974
2  0.042135   0.042460 -0.042125  -0.038460  0.00001  0.004000  0.000493  0.002196  1.000000      0.000000  1.000000      0.000006         0.149544
3  0.048758   0.049369 -0.048748  -0.045369  0.00001  0.004000  0.000572  0.002563  1.000000      0.000000  1.000000      0.000007         0.173468
--------------------------------------------------
